<additional>
    <tlLogic id="J" type="static" programID="0" offset="0">

        <!-- Phase 0: NS green -->
        <phase duration="30" state="GrGr"/>

        <!-- Phase 1: NS yellow -->
        <phase duration="5" state="yryr"/>

        <!-- Phase 2: EW green -->
        <phase duration="30" state="rGrG"/>

        <!-- Phase 3: EW yellow -->
        <phase duration="5" state="ryry"/>

    </tlLogic>
</additional>
